Header
  Mesh DB "." "mesh"
  Include Path ""
  Results Directory ""
End


Simulation
  Coordinate System = Cartesian 2D

  Coordinate Mapping(3) = 1 2 3

  #Simulation Type = Steady
  #Steady State Max Iterations = 20

  Simulation Type =Transient
  Steady State Max Iterations = 250
  TimeStepping Method = BDF  
  BDF Order = 2              
  Timestep Sizes = 0.1
  TimeStep Intervals = 100

  Output Intervals = 1

  Output File =  "ElmerOutput.ep"
End


Constants
  Gravity(4) = 0 -0 0 9.82
  Stefan Boltzmann = 5.67e-8
End

Body 1
  Name = "Body1"
  Equation = 1
  Material = 1
End


Equation 1
  Name = "Equation1"
  Navier-Stokes = True
End


Solver 1
  Equation =  Navier-Stokes

  Linear System Solver = Direct
  Stabilize = True
  Nonlinear System Convergence Tolerance = 1.0e-5
  Nonlinear System Max Iterations = 10
  Nonlinear System Newton After Iterations = 5
  Nonlinear System Newton After Tolerance = 1.0e-2
  Nonlinear System Relaxation Factor = 1.0
End


Material 1
  Name = "Material1"

  Density = 1
  Viscosity = 0.01
End


Boundary Condition 1
  Name = "Constraint1"

  Target Boundaries = 11

  Velocity 1 = 0
  Velocity 2 = 0
End


Boundary Condition 2
  Name = "Constraint2"

  Target Boundaries = 2
  Velocity 2  = 0
End


Boundary Condition 3
  Name = "Constraint3"

  Target Boundaries = 4

  Velocity 1 = 1.0
  Velocity 2 = 0.0
End

!End Of File
